<?xml version="1.0" encoding="UTF-8"?>

<!-- generated on 2025-09-04 21:45:08 by Eclipse SUMO netedit Version 1.24.0
<neteditConfiguration xmlns:xsi="http://www.w3.org/2001/XMLSchema-instance" xsi:noNamespaceSchemaLocation="http://sumo.dlr.de/xsd/neteditConfiguration.xsd">

    <input>
        <sumocfg-file value="C:\Users\DAIICT B\Downloads\202301258_Rishik\webots\resources\sumo_exporter\myMap_net\sumo.sumocfg"/>
        <sumo-net-file value="C:\Users\DAIICT B\Downloads\202301258_Rishik\webots\resources\sumo_exporter\myMap_net\sumo.net.xml"/>
    </input>

    <output>
        <output-file value="C:\Users\DAIICT B\Downloads\202301258_Rishik\webots\resources\sumo_exporter\myMap_net\sumo.net.xml"/>
    </output>

    <processing>
        <geometry.min-radius.fix.railways value="false"/>
        <geometry.avoid-overlap value="false"/>
        <geometry.max-grade.fix value="false"/>
        <offset.disable-normalization value="true"/>
        <lefthand value="0"/>
    </processing>

    <junctions>
        <no-turnarounds value="true"/>
        <junctions.corner-detail value="5"/>
        <junctions.limit-turn-speed value="5.50"/>
        <rectangular-lane-cut value="0"/>
    </junctions>

    <pedestrian>
        <walkingareas value="0"/>
    </pedestrian>

</neteditConfiguration>
-->

<net version="1.20" junctionCornerDetail="5" limitTurnSpeed="5.50" avoidOverlap="0" xmlns:xsi="http://www.w3.org/2001/XMLSchema-instance" xsi:noNamespaceSchemaLocation="http://sumo.dlr.de/xsd/net_file.xsd">

    <location netOffset="200.55,317.83" convBoundary="0.00,0.00,561.74,1290.74" origBoundary="-200.55,-317.83,361.18,972.91" projParameter="!"/>

    <edge id=":11135380573_0" function="internal">
        <lane id=":11135380573_0_0" index="0" speed="13.89" length="0.68" width="4.00" shape="2.00,592.24 2.00,592.44 2.01,592.58 2.05,592.72 2.11,592.91"/>
    </edge>
    <edge id=":11135380574_0" function="internal">
        <lane id=":11135380574_0_0" index="0" speed="7.37" length="7.22" width="4.00" shape="13.51,342.19 11.91,343.19 10.74,344.47 9.99,346.03 9.68,347.87"/>
    </edge>
    <edge id=":11135380574_1" function="internal">
        <lane id=":11135380574_1_0" index="0" speed="12.41" length="7.87" width="4.00" shape="7.95,340.37 9.03,342.42 9.58,343.94 9.75,345.55 9.68,347.87"/>
    </edge>
    <edge id=":13013144820_0" function="internal">
        <lane id=":13013144820_0_0" index="0" speed="6.15" length="6.73" width="4.00" shape="121.79,337.87 121.66,336.07 121.01,334.66 119.83,333.63 118.15,332.99"/>
    </edge>
    <edge id=":13013144820_1" function="internal">
        <lane id=":13013144820_1_0" index="0" speed="13.89" length="8.00" width="4.00" shape="121.79,337.87 122.23,329.89"/>
    </edge>
    <edge id=":13013144849_0" function="internal">
        <lane id=":13013144849_0_0" index="0" speed="4.71" length="5.50" width="4.00" shape="342.06,337.55 343.41,336.60 343.89,335.60 343.51,334.56 342.28,333.48"/>
    </edge>
    <edge id=":13013144849_1" function="internal">
        <lane id=":13013144849_1_0" index="0" speed="11.76" length="5.07" width="4.00" shape="342.06,337.55 343.36,336.77 344.26,336.19 345.21,335.82 346.67,335.68"/>
    </edge>
    <edge id=":13013144851_0" function="internal">
        <lane id=":13013144851_0_0" index="0" speed="13.89" length="7.95" width="4.00" shape="295.26,336.19 293.68,328.40"/>
    </edge>
    <edge id=":13013144851_1" function="internal">
        <lane id=":13013144851_1_0" index="0" speed="6.44" length="2.10" width="4.00" shape="298.78,332.14 296.96,331.94 296.72,331.83"/>
    </edge>
    <edge id=":13013144851_2" function="internal">
        <lane id=":13013144851_2_0" index="0" speed="6.44" length="4.78" width="4.00" shape="296.72,331.83 295.51,331.25 294.41,330.07 293.68,328.40"/>
    </edge>
    <edge id=":13013144861_0" function="internal">
        <lane id=":13013144861_0_0" index="0" speed="13.89" length="7.03" shape="283.00,354.60 285.04,354.15 286.43,353.76 287.71,353.11 289.38,351.90"/>
    </edge>
    <edge id=":13013144861_1" function="internal">
        <lane id=":13013144861_1_0" index="0" speed="5.77" length="5.86" width="4.00" shape="283.00,354.60 284.85,354.34 286.31,354.52 287.40,355.14 288.10,356.19"/>
    </edge>
    <edge id=":13013145020_0" function="internal">
        <lane id=":13013145020_0_0" index="0" speed="8.86" length="7.99" width="4.00" shape="233.83,476.53 231.17,474.91 229.09,473.80 227.59,473.22 226.68,473.15"/>
    </edge>
    <edge id=":13013145020_1" function="internal">
        <lane id=":13013145020_1_0" index="0" speed="13.89" length="8.31" width="4.00" shape="234.58,470.60 232.29,471.51 230.69,472.03 229.05,472.47 226.68,473.15"/>
    </edge>
    <edge id=":13013145029_0" function="internal">
        <lane id=":13013145029_0_0" index="0" speed="4.57" length="5.31" width="4.00" shape="272.59,579.12 274.14,578.64 274.84,577.88 274.71,576.85 273.74,575.55"/>
    </edge>
    <edge id=":13013145029_1" function="internal">
        <lane id=":13013145029_1_0" index="0" speed="13.89" length="8.00" width="4.00" shape="272.59,579.12 280.47,577.72"/>
    </edge>
    <edge id=":13013298544_0" function="internal">
        <lane id=":13013298544_0_0" index="0" speed="6.14" length="6.73" width="4.00" shape="326.74,565.53 327.56,567.14 328.71,568.19 330.19,568.68 331.99,568.61"/>
    </edge>
    <edge id=":13013298544_1" function="internal">
        <lane id=":13013298544_1_0" index="0" speed="13.89" length="8.00" width="4.00" shape="324.11,570.00 331.99,568.61"/>
    </edge>
    <edge id=":13013298555_0" function="internal">
        <lane id=":13013298555_0_0" index="0" speed="5.43" length="6.14" width="4.00" shape="264.63,451.34 263.55,452.70 263.21,454.03 263.58,455.33 264.69,456.60"/>
    </edge>
    <edge id=":13013298555_1" function="internal">
        <lane id=":13013298555_1_0" index="0" speed="13.89" length="7.99" width="4.00" shape="264.63,451.34 258.66,456.65"/>
    </edge>
    <edge id=":13013300144_0" function="internal">
        <lane id=":13013300144_0_0" index="0" speed="13.89" length="7.99" width="4.00" shape="277.85,434.47 276.64,436.52 275.75,437.87 274.80,439.19 273.39,441.10"/>
    </edge>
    <edge id=":13013300144_1" function="internal">
        <lane id=":13013300144_1_0" index="0" speed="4.59" length="1.08" width="4.00" shape="271.74,437.66 272.80,437.85"/>
    </edge>
    <edge id=":13013300144_2" function="internal">
        <lane id=":13013300144_2_0" index="0" speed="4.59" length="4.27" width="4.00" shape="272.80,437.85 273.34,437.95 274.15,438.62 274.17,439.67 273.39,441.10"/>
    </edge>
    <edge id=":13013300166_0" function="internal">
        <lane id=":13013300166_0_0" index="0" speed="13.89" length="8.40" width="4.00" shape="118.00,404.94 117.62,402.50 117.69,400.80 117.98,399.09 118.25,396.60"/>
    </edge>
    <edge id=":13013300166_1" function="internal">
        <lane id=":13013300166_1_0" index="0" speed="5.14" length="8.58" width="4.00" shape="118.00,404.94 118.47,402.33 119.53,401.07 121.17,401.17 123.39,402.61"/>
    </edge>
    <edge id=":13013300182_0" function="internal">
        <lane id=":13013300182_0_0" index="0" speed="13.89" length="11.00" width="4.00" shape="120.94,351.92 121.60,340.94"/>
    </edge>
    <edge id=":13013300182_1" function="internal">
        <lane id=":13013300182_1_0" index="0" speed="5.51" length="10.31" width="4.00" shape="120.94,351.92 121.46,348.54 122.49,347.23 124.04,347.99 126.09,350.82"/>
    </edge>
    <edge id=":1343054340_0" function="internal">
        <lane id=":1343054340_0_0" index="0" speed="13.89" length="7.95" width="4.00" shape="271.23,317.43 268.97,318.08 267.46,318.66 266.05,319.45 264.09,320.76"/>
    </edge>
    <edge id=":1343054340_1" function="internal">
        <lane id=":1343054340_1_0" index="0" speed="7.46" length="1.89" width="4.00" shape="267.05,314.52 267.00,316.40"/>
    </edge>
    <edge id=":1343054340_2" function="internal">
        <lane id=":1343054340_2_0" index="0" speed="7.46" length="5.38" width="4.00" shape="267.00,316.40 266.48,318.07 265.51,319.52 264.09,320.76"/>
    </edge>
    <edge id=":1343054367_0" function="internal">
        <lane id=":1343054367_0_0" index="0" speed="13.89" length="0.14" width="4.00" shape="264.39,283.79 264.39,283.84 264.39,283.86 264.39,283.89 264.39,283.94"/>
    </edge>
    <edge id=":1344423631_0" function="internal">
        <lane id=":1344423631_0_0" index="0" speed="13.89" length="8.21" width="4.00" shape="295.05,344.41 295.26,336.21"/>
    </edge>
    <edge id=":1344423631_1" function="internal">
        <lane id=":1344423631_1_0" index="0" speed="5.42" length="7.45" width="4.00" shape="295.05,344.41 294.73,342.57 295.32,341.23 296.81,340.41 299.20,340.10"/>
    </edge>
    <edge id=":2712987712_0" function="internal">
        <lane id=":2712987712_0_0" index="0" speed="13.89" length="8.00" width="4.00" shape="394.48,338.73 393.14,330.73"/>
        <lane id=":2712987712_0_1" index="1" speed="13.89" length="8.00" width="4.00" shape="398.42,338.01 397.09,330.12"/>
        <lane id=":2712987712_0_2" index="2" speed="13.89" length="8.00" width="4.00" shape="402.35,337.29 401.04,329.51"/>
    </edge>
    <edge id=":2712987712_3" function="internal">
        <lane id=":2712987712_3_0" index="0" speed="4.90" length="4.62" width="4.00" shape="391.70,334.58 392.54,334.27 393.06,333.53 393.26,332.35 393.14,330.73"/>
    </edge>
    <edge id=":3832152244_0" function="internal">
        <lane id=":3832152244_0_0" index="0" speed="5.43" length="5.35" width="4.00" shape="388.07,330.55 388.51,332.41 389.11,333.72 389.87,334.47 390.78,334.66"/>
    </edge>
    <edge id=":3832152244_1" function="internal">
        <lane id=":3832152244_1_0" index="0" speed="13.89" length="7.99" width="4.00" shape="388.07,330.55 389.38,338.47"/>
        <lane id=":3832152244_1_1" index="1" speed="13.89" length="7.99" width="4.00" shape="384.12,331.22 385.43,339.11"/>
        <lane id=":3832152244_1_2" index="2" speed="13.89" length="7.99" width="4.00" shape="380.18,331.89 381.48,339.74"/>
    </edge>
    <edge id=":3832152244_4" function="internal">
        <lane id=":3832152244_4_0" index="0" speed="13.89" length="12.09" width="4.00" shape="378.71,335.25 390.78,334.66"/>
    </edge>
    <edge id=":3832152244_5" function="internal">
        <lane id=":3832152244_5_0" index="0" speed="6.76" length="8.51" width="4.00" shape="378.71,335.25 381.41,335.46 383.44,336.17 384.78,337.39 385.43,339.11"/>
        <lane id=":3832152244_5_1" index="1" speed="5.69" length="5.68" width="4.00" shape="378.71,335.25 379.65,335.52 380.43,336.36 381.04,337.77 381.48,339.74"/>
    </edge>
    <edge id=":4025764826_0" function="internal">
        <lane id=":4025764826_0_0" index="0" speed="4.36" length="3.23" width="4.00" shape="168.81,612.51 169.69,612.50 170.37,612.77 170.84,613.33 171.10,614.17"/>
    </edge>
    <edge id=":6975696114_0" function="internal">
        <lane id=":6975696114_0_0" index="0" speed="5.53" length="6.31" width="4.00" shape="414.52,88.13 416.22,87.74 417.35,86.89 417.90,85.60 417.87,83.85"/>
    </edge>
    <edge id=":6975696115_0" function="internal">
        <lane id=":6975696115_0_0" index="0" speed="6.00" length="6.65" width="4.00" shape="396.53,85.62 397.12,87.31 398.11,88.48 399.50,89.12 401.30,89.22"/>
    </edge>
    <edge id=":6975696115_1" function="internal">
        <lane id=":6975696115_1_0" index="0" speed="13.89" length="7.99" width="4.00" shape="393.34,90.01 401.30,89.22"/>
    </edge>
    <edge id=":6975696116_0" function="internal">
        <lane id=":6975696116_0_0" index="0" speed="13.89" length="8.00" width="4.00" shape="357.93,101.04 356.73,93.11"/>
        <lane id=":6975696116_0_1" index="1" speed="13.89" length="8.00" width="4.00" shape="361.88,100.43 360.68,92.52"/>
        <lane id=":6975696116_0_2" index="2" speed="13.89" length="8.00" width="4.00" shape="365.83,99.82 364.64,91.93"/>
    </edge>
    <edge id=":6975696116_3" function="internal">
        <lane id=":6975696116_3_0" index="0" speed="5.30" length="5.18" width="4.00" shape="365.83,99.82 365.68,97.99 365.85,96.62 366.35,95.71 367.17,95.28"/>
    </edge>
    <edge id=":8357062323_0" function="internal">
        <lane id=":8357062323_0_0" index="0" speed="13.89" length="8.00" width="4.00" shape="425.59,563.56 426.79,571.56"/>
        <lane id=":8357062323_0_1" index="1" speed="13.89" length="8.00" width="4.00" shape="421.64,564.20 422.83,572.11"/>
        <lane id=":8357062323_0_2" index="2" speed="13.89" length="8.00" width="4.00" shape="417.69,564.83 418.87,572.66"/>
    </edge>
    <edge id=":8357062323_3" function="internal">
        <lane id=":8357062323_3_0" index="0" speed="6.21" length="8.09" width="4.00" shape="416.33,569.19 418.97,568.98 420.93,569.40 422.22,570.44 422.83,572.11"/>
        <lane id=":8357062323_3_1" index="1" speed="5.02" length="4.81" width="4.00" shape="416.33,569.19 417.24,569.27 417.97,569.88 418.51,571.01 418.87,572.66"/>
    </edge>
    <edge id=":8357062348_0" function="internal">
        <lane id=":8357062348_0_0" index="0" speed="13.89" length="8.00" width="4.00" shape="470.00,844.45 471.29,852.33"/>
        <lane id=":8357062348_0_1" index="1" speed="13.89" length="8.00" width="4.00" shape="466.05,845.09 467.34,852.98"/>
        <lane id=":8357062348_0_2" index="2" speed="13.89" length="8.00" width="4.00" shape="462.10,845.73 463.39,853.63"/>
    </edge>
    <edge id=":8357062348_3" function="internal">
        <lane id=":8357062348_3_0" index="0" speed="5.20" length="5.05" width="4.00" shape="462.10,845.73 462.27,847.52 462.10,848.85 461.61,849.72 460.79,850.13"/>
    </edge>
    <edge id=":8389332441_0" function="internal">
        <lane id=":8389332441_0_0" index="0" speed="5.78" length="6.50" width="4.00" shape="350.19,593.22 348.50,593.77 347.38,594.74 346.83,596.10 346.85,597.88"/>
    </edge>
    <edge id=":8389332441_1" function="internal">
        <lane id=":8389332441_1_0" index="0" speed="13.89" length="8.00" width="4.00" shape="350.19,593.22 342.31,594.63"/>
    </edge>
    <edge id=":8389332442_0" function="internal">
        <lane id=":8389332442_0_0" index="0" speed="5.83" length="6.53" width="4.00" shape="273.86,606.88 272.17,607.44 271.04,608.40 270.46,609.77 270.44,611.55"/>
    </edge>
    <edge id=":8389332442_1" function="internal">
        <lane id=":8389332442_1_0" index="0" speed="13.89" length="8.01" width="4.00" shape="269.40,603.61 270.44,611.55"/>
    </edge>
    <edge id=":8389332448_0" function="internal">
        <lane id=":8389332448_0_0" index="0" speed="5.80" length="6.51" width="4.00" shape="387.82,668.32 389.49,667.74 390.60,666.76 391.15,665.39 391.12,663.61"/>
    </edge>
    <edge id=":8389332448_1" function="internal">
        <lane id=":8389332448_1_0" index="0" speed="13.89" length="7.98" width="4.00" shape="387.82,668.32 390.14,667.88 391.75,667.66 393.37,667.58 395.74,667.56"/>
    </edge>
    <edge id=":8389332450_0" function="internal">
        <lane id=":8389332450_0_0" index="0" speed="13.89" length="8.00" width="4.00" shape="264.36,595.84 272.23,594.46"/>
    </edge>
    <edge id=":8389332450_1" function="internal">
        <lane id=":8389332450_1_0" index="0" speed="5.61" length="6.37" width="4.00" shape="264.36,595.84 266.11,595.79 267.44,596.32 268.34,597.43 268.81,599.12"/>
    </edge>
    <edge id=":8389332491_0" function="internal">
        <lane id=":8389332491_0_0" index="0" speed="13.89" length="8.00" width="4.00" shape="439.08,659.54 440.33,667.27"/>
        <lane id=":8389332491_0_1" index="1" speed="13.89" length="8.00" width="4.00" shape="435.12,660.09 436.39,667.99"/>
        <lane id=":8389332491_0_2" index="2" speed="13.89" length="8.00" width="4.00" shape="431.16,660.64 432.46,668.71"/>
    </edge>
    <edge id=":8389332491_3" function="internal">
        <lane id=":8389332491_3_0" index="0" speed="6.35" length="8.17" width="4.00" shape="429.75,665.03 432.39,664.84 434.37,665.28 435.71,666.33 436.39,667.99"/>
        <lane id=":8389332491_3_1" index="1" speed="5.19" length="5.03" width="4.00" shape="429.75,665.03 430.66,665.13 431.41,665.78 432.01,666.98 432.46,668.71"/>
    </edge>

    <edge id="119563230_1" from="Custom38" to="11135380574" priority="-1" shape="6.92,14.25 4.32,248.92 3.35,335.60 3.36,335.80 3.39,336.01 3.44,336.21 3.51,336.40 3.60,336.58 6.20,341.33">
        <lane id="119563230_1_0" index="0" speed="13.89" length="326.78" width="4.00" shape="8.92,14.27 6.32,248.94 5.37,335.65 7.95,340.37"/>
    </edge>
    <edge id="119563230_2" from="11135380574" to="11135380573" priority="-1" shape="7.68,347.76 7.51,350.92 7.51,351.10 7.79,358.26 7.81,358.46 8.39,362.57 9.06,367.29 9.10,367.51 11.35,376.15 11.42,376.36 11.51,376.55 11.62,376.74 13.93,380.27 14.08,380.47 16.83,383.69 16.93,383.80 17.04,383.90 21.01,387.34 22.45,389.54 23.47,392.06 23.96,394.72 23.89,397.59 23.21,400.39 21.95,402.98 20.20,405.23 16.25,408.31 16.07,408.48 12.35,412.19 12.19,412.38 8.97,416.53 8.82,416.74 5.90,421.70 5.78,421.94 3.56,427.24 3.47,427.50 2.00,433.05 1.96,433.22 1.94,433.38 1.93,433.54 0.00,592.57">
        <lane id="119563230_2_0" index="0" speed="13.89" length="256.39" width="4.00" shape="9.68,347.87 9.51,351.06 9.80,358.22 10.37,362.29 11.05,367.08 13.32,375.69 15.64,379.22 18.40,382.44 22.53,386.01 24.23,388.61 25.40,391.50 25.96,394.56 25.88,397.85 25.10,401.07 23.66,404.04 21.63,406.65 17.46,409.92 13.75,413.64 10.50,417.83 7.60,422.77 5.38,428.08 3.93,433.61 2.00,592.24"/>
    </edge>
    <edge id="119753633_1" from="13013144861" to="13013300144" priority="-1" shape="286.25,356.94 286.75,358.18 288.86,367.80 288.99,368.97 289.96,377.64 290.06,387.54 289.35,395.88 287.92,404.13 285.77,412.23 282.93,420.12 279.41,427.72 276.11,433.48">
        <lane id="119753633_1_0" index="0" speed="13.89" length="81.32" width="4.00" shape="288.10,356.19 288.67,357.59 290.84,367.47 290.98,368.75 291.96,377.52 292.06,387.61 291.34,396.14 289.88,404.56 287.68,412.83 284.78,420.88 281.19,428.64 277.85,434.47"/>
    </edge>
    <edge id="119753633_2" from="13013300144" to="13013298555" priority="-1" shape="271.77,439.92 269.53,443.00 263.40,449.76 263.30,449.85">
        <lane id="119753633_2_0" index="0" speed="13.89" length="13.50" width="4.00" shape="273.39,441.10 271.08,444.26 264.88,451.11 264.63,451.34"/>
    </edge>
    <edge id="119753633_3" from="13013144820" to="1343054367" priority="-1" shape="124.23,329.98 124.86,316.63 129.15,310.71 132.95,306.50 135.68,303.98 137.19,302.59 137.31,302.46 140.62,298.83 140.77,298.66 143.64,294.68 143.76,294.49 146.18,290.22 146.29,289.98 148.67,284.14 148.76,283.87 150.27,277.74 150.32,277.46 150.67,273.92 150.94,271.23 152.76,258.53 152.77,258.42 153.24,252.96 153.88,245.61 153.89,245.50 154.28,232.64 154.28,232.53 153.96,219.67 153.96,219.55 153.21,210.48 152.89,206.49 152.88,206.37 151.07,193.38 151.05,193.27 148.52,180.41 148.49,180.29 145.21,167.57 143.36,160.74 142.59,155.86 142.26,153.85 141.91,146.88 142.29,139.92 143.31,133.78 143.43,133.05 143.90,131.37 145.61,125.38 148.72,118.02 152.70,111.10 157.55,104.64 163.12,97.63 169.36,91.30 176.25,85.67 183.70,80.81 191.63,76.78 199.95,73.60 208.57,71.34 212.55,70.72 217.26,70.01 226.03,69.61 234.81,70.11 243.48,71.55 251.95,73.89 260.13,77.10 267.93,81.16 280.53,89.03 284.76,92.37 287.97,95.74 290.73,99.53 292.96,103.65 294.73,108.28 297.55,117.33 299.82,126.55 301.52,135.89 302.65,145.31 303.21,154.75 303.18,164.20 302.60,173.49 301.02,183.19 298.71,192.82 295.67,202.27 291.95,211.48 288.76,217.98 287.88,219.77 283.26,227.75 277.93,235.64 274.02,241.42 273.92,241.58 270.43,247.95 270.35,248.12 267.48,254.79 267.41,254.97 265.17,261.87 265.12,262.06 263.53,269.21 263.50,269.39 263.34,270.68 262.60,276.67 262.58,276.87 262.54,278.63 262.39,283.88">
        <lane id="119753633_3_0" index="0" speed="13.89" length="593.42" width="4.00" shape="122.23,329.89 122.89,315.94 127.59,309.45 131.53,305.09 134.32,302.51 135.83,301.13 139.14,297.48 142.01,293.51 144.44,289.24 146.82,283.39 148.33,277.27 148.68,273.72 148.95,270.99 150.78,258.25 151.25,252.79 151.89,245.44 152.28,232.58 151.96,219.72 151.22,210.64 150.90,206.65 149.09,193.66 146.56,180.80 143.28,168.08 141.40,161.16 140.62,156.18 140.27,154.06 139.91,146.88 140.30,139.70 141.34,133.45 141.47,132.62 141.98,130.82 143.72,124.71 146.93,117.13 151.03,110.00 155.97,103.42 161.62,96.30 168.01,89.82 175.07,84.05 182.70,79.08 190.82,74.95 199.34,71.69 208.16,69.38 212.25,68.74 217.06,68.02 226.04,67.61 235.03,68.12 243.91,69.59 252.58,71.99 260.96,75.28 268.92,79.42 281.68,87.39 286.11,90.89 289.51,94.46 292.43,98.46 294.78,102.81 296.62,107.62 299.48,116.79 301.78,126.13 303.50,135.59 304.64,145.13 305.21,154.69 305.18,164.27 304.59,173.71 302.98,183.58 300.64,193.36 297.55,202.95 293.78,212.30 290.56,218.86 289.64,220.71 284.96,228.81 279.59,236.76 275.68,242.54 272.19,248.91 269.32,255.58 267.07,262.48 265.48,269.64 265.32,270.93 264.59,276.91 264.54,278.68 264.39,283.79"/>
    </edge>
    <edge id="119753633_4" from="13013298555" to="13013145020" priority="-1" shape="257.32,455.17 256.59,455.83 249.16,461.12 241.19,465.59 233.79,468.76">
        <lane id="119753633_4_0" index="0" speed="13.89" length="27.95" width="4.00" shape="258.66,456.65 257.84,457.39 250.23,462.81 242.08,467.39 234.58,470.60"/>
    </edge>
    <edge id="119753633_5" from="13013145020" to="13013300166" priority="-1" shape="226.09,471.24 224.05,471.87 215.07,473.58 205.96,474.34 196.81,474.11 187.75,472.91 178.87,470.74 170.00,467.53 161.55,463.35 153.61,458.26 146.30,452.33 139.69,445.63 133.87,438.24 128.91,430.24 128.17,428.70 126.55,425.26 124.88,421.76 121.82,412.88 119.95,404.50">
        <lane id="119753633_5_0" index="0" speed="13.89" length="144.46" width="4.00" shape="226.68,473.15 224.53,473.81 215.34,475.56 206.02,476.34 196.65,476.11 187.38,474.88 178.29,472.66 169.21,469.37 160.56,465.09 152.44,459.88 144.95,453.81 138.19,446.96 132.23,439.39 127.15,431.20 126.36,429.56 124.74,426.12 123.03,422.52 119.89,413.43 118.00,404.94"/>
    </edge>
    <edge id="119753633_6" from="13013300166" to="13013300182" priority="-1" shape="120.25,396.72 120.53,392.02 122.20,364.36 122.94,352.04">
        <lane id="119753633_6_0" index="0" speed="13.89" length="44.76" width="4.00" shape="118.25,396.60 118.53,391.90 120.20,364.24 120.94,351.92"/>
    </edge>
    <edge id="119753633_7" from="13013300182" to="13013144820" priority="-1" shape="123.60,341.06 123.79,338.00">
        <lane id="119753633_7_0" index="0" speed="13.89" length="3.07" width="4.00" shape="121.60,340.94 121.79,337.87"/>
    </edge>
    <edge id="119753637_3" from="1344423631" to="13013144851" priority="-1" type="roundabout" shape="297.26,336.21 297.26,336.19">
        <lane id="119753637_3_0" index="0" speed="13.89" length="0.10" width="4.00" shape="295.26,336.21 295.26,336.19"/>
    </edge>
    <edge id="119753637_4" from="13013144851" to="1343054340" priority="-1" type="roundabout" shape="295.60,327.84 295.51,327.53 295.44,327.33 295.35,327.14 295.24,326.96 291.80,321.88 291.67,321.71 291.53,321.56 291.37,321.42 286.52,317.63 286.34,317.51 286.16,317.41 285.97,317.33 280.18,315.22 279.98,315.16 279.78,315.12 279.58,315.10 273.41,314.85 273.20,314.85 272.99,314.87 272.79,314.92 270.70,315.50">
        <lane id="119753637_4_0" index="0" speed="13.89" length="27.13" width="4.00" shape="293.68,328.40 293.60,328.13 290.15,323.00 285.29,319.21 279.50,317.10 273.33,316.85 273.23,316.87 271.23,317.43"/>
    </edge>
    <edge id="119753637_5" from="1343054340" to="13013144861" priority="-1" type="roundabout" shape="262.96,319.11 260.63,320.70 260.49,320.81 260.36,320.92 260.24,321.05 260.14,321.18 256.16,326.70 256.06,326.85 255.98,327.00 255.91,327.16 255.86,327.32 254.01,333.86 253.97,334.03 253.94,334.20 253.93,334.37 253.94,334.55 254.43,341.31 254.45,341.48 254.48,341.65 254.53,341.82 254.59,341.98 257.36,348.18 257.44,348.34 257.53,348.49 257.63,348.63 257.74,348.76 262.46,353.66 262.59,353.78 262.73,353.89 262.87,353.99 263.02,354.07 269.14,357.08 269.35,357.16 269.56,357.23 269.79,357.27 276.58,358.05 276.75,358.07 276.93,358.06 277.10,358.05 277.27,358.01 283.46,356.55">
        <lane id="119753637_5_0" index="0" speed="13.89" length="58.09" width="4.00" shape="264.09,320.76 261.76,322.35 261.89,322.24 261.68,322.46 257.79,327.86 257.78,327.87 257.76,327.94 255.94,334.40 255.96,334.23 255.94,334.54 256.42,341.16 256.41,341.10 256.46,341.28 256.44,341.22 259.19,347.36 259.19,347.38 259.20,347.39 259.21,347.40 259.23,347.42 263.90,352.27 263.89,352.26 263.85,352.23 263.99,352.32 270.02,355.28 269.91,355.24 270.15,355.30 276.80,356.06 276.81,356.06 276.89,356.04 283.00,354.60"/>
    </edge>
    <edge id="1200989831" from="13013144820" to="11135380574" priority="-1" shape="118.59,331.04 113.12,329.79 108.19,327.92 103.55,325.38 99.52,322.38 95.92,318.88 94.17,316.65 92.74,314.82 92.59,314.65 92.42,314.49 87.79,310.77 87.65,310.67 87.51,310.58 84.35,308.82 82.33,307.68 82.18,307.60 82.02,307.54 76.43,305.52 76.27,305.47 76.11,305.44 70.26,304.37 70.09,304.35 69.92,304.34 66.56,304.29 63.98,304.25 63.81,304.25 63.65,304.27 57.98,305.11 57.82,305.14 57.67,305.18 52.21,306.90 52.06,306.96 51.92,307.02 46.79,309.59 46.65,309.66 46.52,309.75 41.88,313.10 41.76,313.19 41.64,313.30 37.59,317.33 37.48,317.45 37.38,317.58 35.56,320.10 34.07,322.15 29.30,328.00 23.87,333.14 17.80,337.54 13.56,339.95 12.67,340.37">
        <lane id="1200989831_0" index="0" speed="13.89" length="126.22" width="4.00" shape="118.15,332.99 112.54,331.71 107.35,329.74 102.47,327.07 98.22,323.91 94.43,320.22 92.60,317.88 91.17,316.06 91.15,316.04 91.11,316.00 86.54,312.33 86.53,312.32 86.48,312.30 83.37,310.57 81.37,309.43 81.27,309.39 75.76,307.40 75.69,307.40 69.90,306.34 69.91,306.34 69.85,306.34 66.53,306.29 63.97,306.25 63.86,306.26 58.28,307.09 58.26,307.09 58.23,307.10 52.81,308.81 52.82,308.81 52.76,308.83 47.69,311.37 47.62,311.42 43.06,314.72 42.99,314.78 39.00,318.75 39.01,318.74 39.00,318.75 37.18,321.27 35.66,323.37 30.77,329.36 25.15,334.68 18.88,339.22 14.53,341.70 13.51,342.19"/>
    </edge>
    <edge id="1200989832" from="13013298555" to="13013298544" priority="-1" shape="263.39,458.12 268.15,462.18 276.33,468.52 285.11,474.69 294.17,480.42 303.47,485.71 307.90,488.38 311.82,491.56 315.25,495.25 318.12,499.38 320.39,503.87 322.12,509.09 323.02,514.50 323.08,519.99 322.28,525.55 318.52,547.17 318.50,547.37 318.49,547.57 318.51,547.77 318.55,547.97 318.60,548.17 324.85,566.18">
        <lane id="1200989832_0" index="0" speed="13.89" length="139.75" width="4.00" shape="264.69,456.60 269.41,460.63 277.52,466.91 286.22,473.03 295.20,478.70 304.48,483.98 309.05,486.74 313.19,490.10 316.81,493.99 319.84,498.35 322.24,503.10 324.07,508.61 325.02,514.32 325.08,520.12 324.26,525.86 320.49,547.51 320.51,547.39 320.53,547.72 320.52,547.60 326.74,565.53"/>
    </edge>
    <edge id="1257747224_1" from="Custom41" to="8389332450" priority="-1" shape="247.34,600.85 264.70,597.81">
        <lane id="1257747224_1_0" index="0" speed="13.89" length="17.63" width="4.00" shape="246.99,598.88 264.36,595.84"/>
    </edge>
    <edge id="1257747224_2" from="8389332450" to="8357062323" priority="-1" shape="272.58,596.43 416.67,571.16">
        <lane id="1257747224_2_0" index="0" speed="13.89" length="146.29" width="4.00" shape="272.23,594.46 416.33,569.19"/>
    </edge>
    <edge id="1257747542" from="3832152244" to="2712987712" priority="-1" shape="390.96,336.65 391.87,336.57">
        <lane id="1257747542_0" index="0" speed="13.89" length="0.92" width="4.00" shape="390.78,334.66 391.70,334.58"/>
    </edge>
    <edge id="133549790" from="13013144849" to="3832152244" priority="-1" shape="346.70,337.68 356.21,337.57 378.74,337.25">
        <lane id="133549790_0" index="0" speed="13.89" length="32.04" width="4.00" shape="346.67,335.68 356.18,335.57 378.71,335.25"/>
    </edge>
    <edge id="1375194857" from="13013145029" to="13013145020" priority="-1" shape="275.18,574.16 273.33,572.24 269.39,567.01 266.13,561.34 263.60,555.32 261.75,548.68 260.91,542.72 260.78,541.84 260.72,534.96 261.58,527.99 261.60,527.80 261.78,521.53 261.77,521.29 261.23,515.03 261.20,514.81 259.95,508.66 259.89,508.43 257.93,502.46 257.84,502.24 255.06,496.24 254.95,496.02 251.45,490.40 251.31,490.21 247.16,485.04 247.00,484.87 242.26,480.24 242.07,480.08 236.80,476.05 236.66,475.95 234.91,474.84">
        <lane id="1375194857_0" index="0" speed="13.89" length="112.10" width="4.00" shape="273.74,575.55 271.81,573.54 267.72,568.11 264.33,562.23 261.71,555.98 259.79,549.09 258.93,543.00 258.78,542.00 258.72,534.85 259.59,527.75 259.60,527.67 259.78,521.48 259.77,521.42 259.24,515.21 259.23,515.14 257.99,509.06 257.97,508.99 256.03,503.09 256.01,503.04 253.25,497.08 253.20,497.00 249.76,491.46 249.72,491.43 245.60,486.30 245.57,486.27 240.87,481.67 240.82,481.64 235.59,477.64 235.54,477.61 233.83,476.53"/>
    </edge>
    <edge id="1416039827" from="1344423631" to="13013144849" priority="-1" shape="299.24,342.10 338.71,341.33 338.89,341.31 339.08,341.28 339.26,341.24 339.43,341.18 339.60,341.10 342.99,339.32">
        <lane id="1416039827_0" index="0" speed="13.89" length="43.63" width="4.00" shape="299.20,340.10 338.67,339.33 338.62,339.33 338.51,339.36 338.80,339.26 342.06,337.55"/>
    </edge>
    <edge id="1416039828" from="13013144849" to="13013144851" priority="-1" shape="343.38,331.81 339.85,329.47 339.67,329.37 339.49,329.28 339.29,329.21 339.10,329.17 338.89,329.14 338.69,329.14 298.73,330.14">