<?xml version='1.0' encoding='UTF-8'?>
<edges>
  <edge id="133549790" from="13013144849" to="3832152244" numLanes="1" width="4.0" shape="146.144912,19.842403 155.656035,19.737183 155.662632,19.737099 178.187454,19.413597 "/>
  <edge id="399909357" from="8357062348" to="4025764826" numLanes="1" width="4.0" shape="259.875894,530.321649 257.404674,530.777195 216.282661,538.327796 101.380230,559.446644 -19.342259,581.636326 -130.021739,601.977063 -136.028372,600.173925 -139.630994,596.945223 -142.124557,592.405655 -154.538553,510.416536 -163.126463,453.651028 -163.130519,453.625350 -177.498169,366.342678 -179.627012,351.088112 -177.870789,337.256510 -172.585674,324.679881 -164.655024,317.053137 -156.450582,311.953893 -144.356112,307.683091 -75.997346,303.720733 -75.799437,303.699338 -29.449323,296.339574 "/>
  <edge id="745194944" from="6975696114" to="6975696115" numLanes="1" width="4.0" shape="219.297021,-234.299490 211.511214,-283.361427 211.473715,-283.542934 211.419575,-283.720190 211.349258,-283.891673 211.263370,-284.055911 211.162646,-284.211493 210.418449,-285.251944 210.299700,-285.402203 210.167123,-285.540415 210.021935,-285.665312 209.865465,-285.775750 209.699150,-285.870715 208.686952,-286.386051 208.536901,-286.454804 208.381691,-286.510950 208.222381,-286.554106 206.628841,-286.915932 206.444432,-286.948809 206.257757,-286.964288 206.070452,-286.962236 205.884160,-286.942668 189.066231,-284.375123 188.880594,-284.337714 188.699327,-284.282914 188.524055,-284.211217 188.356350,-284.123263 188.197715,-284.019843 188.049573,-283.901883 187.913251,-283.770441 186.543874,-282.318839 186.414649,-282.167416 186.301116,-282.003898 186.204402,-281.829903 185.500455,-280.400224 185.417475,-280.206577 185.355326,-280.005275 185.314697,-279.798552 185.066551,-278.054987 185.047478,-277.832519 185.053323,-277.609311 185.084012,-277.388146 194.021228,-231.834197 "/>
  <edge id="899437803" from="4025764826" to="Custom31" numLanes="1" width="4.0" shape="-31.738466,294.676417 -10.116873,431.535685 "/>
  <edge id="903257901" from="Custom32" to="Custom33" numLanes="1" width="4.0" shape="53.793794,422.526148 31.935502,300.007940 "/>
  <edge id="903257902" from="8389332441" to="Custom34" numLanes="1" width="4.0" shape="144.320445,280.344924 151.564015,328.270436 "/>
  <edge id="903257910" from="8389332505" to="Custom35" numLanes="1" width="4.0" shape="222.583415,-223.784894 205.705681,-145.195268 "/>
  <edge id="1200989831" from="13013144820" to="11135380574" numLanes="1" width="4.0" shape="-81.964184,13.207721 -87.428980,11.958390 -92.365381,10.080510 -97.000405,7.545265 -101.034053,4.541320 -104.630730,1.044600 -106.377589,-1.189413 -106.379474,-1.191820 -107.812534,-3.018761 -107.963201,-3.189795 -108.132351,-3.342575 -112.761375,-7.067408 -112.896946,-7.167393 -113.040450,-7.255614 -116.200093,-9.019168 -118.222861,-10.158633 -118.372059,-10.234634 -118.527091,-10.297889 -124.121744,-12.311756 -124.279266,-12.361215 -124.440330,-12.397513 -130.296100,-13.465335 -130.461556,-13.488414 -130.628360,-13.497605 -133.994199,-13.542258 -136.571377,-13.588678 -136.737378,-13.584774 -136.902484,-13.567113 -142.573384,-12.721145 -142.727235,-12.691996 -142.878335,-12.650900 -148.340395,-10.933035 -148.490708,-10.879076 -148.636236,-10.813296 -153.756695,-8.247860 -153.897066,-8.170342 -154.030774,-8.081828 -158.667358,-4.737622 -158.791862,-4.640113 -158.908273,-4.533071 -162.960026,-0.500382 -163.070094,-0.381580 -163.170190,-0.254262 -164.991823,2.266550 -166.480176,4.316065 -171.253142,10.168577 -176.683092,15.300640 -182.755181,19.705218 -186.992213,22.119317 -187.884675,22.534164 "/>
  <edge id="1200989832" from="13013298555" to="13013298544" numLanes="1" width="4.0" shape="62.837493,140.286492 67.603385,144.346146 67.674642,144.404074 75.776552,150.687153 75.853411,150.743870 84.556757,156.850949 84.636493,156.904096 93.619684,162.585587 93.700033,162.633807 102.921251,167.877906 107.351579,170.543428 111.265615,173.723248 114.701711,177.413547 117.571100,181.541131 119.834104,186.032167 121.569945,191.255660 122.472342,196.662146 122.532843,202.157662 121.730822,207.717762 117.971157,229.334000 117.946617,229.534800 117.942486,229.737050 117.958808,229.938684 117.995414,230.137637 118.051931,230.331875 124.297376,248.345181 "/>
  <edge id="1257747542" from="3832152244" to="2712987712" numLanes="1" width="4.0" shape="190.408983,18.814725 191.318471,18.738184 "/>
  <edge id="1375194857" from="13013145029" to="13013145020" numLanes="1" width="4.0" shape="74.633178,256.322183 72.776114,254.407818 68.842430,249.177512 65.581590,243.507717 63.047276,237.488915 61.201521,230.844903 60.362551,224.883983 60.359896,224.865727 60.231330,224.009559 60.168333,217.125452 61.029780,210.151330 61.044001,209.964932 61.228479,203.690773 61.221879,203.459365 60.679330,197.197062 60.646891,196.972172 59.399418,190.821082 59.339487,190.594606 57.377935,184.621357 57.292502,184.404670 54.511038,178.400473 54.394720,178.185035 50.902607,172.569140 50.762846,172.372024 46.612366,167.210056 46.450533,167.031896 41.704388,162.400392 41.521618,162.242422 36.252753,158.217753 36.112168,158.119614 34.359466,157.004674 "/>
  <edge id="1416039827" from="1344423631" to="13013144849" numLanes="1" width="4.0" shape="98.690903,24.264553 138.157899,23.490381 138.342728,23.478176 138.525635,23.448924 138.705051,23.402876 138.879438,23.340425 139.047299,23.262109 142.441079,21.482925 "/>
  <edge id="1416039828" from="13013144849" to="13013144851" numLanes="1" width="4.0" shape="142.826913,13.976837 139.295396,11.634867 139.120319,11.531182 138.935614,11.445823 138.743191,11.379673 138.545043,11.333417 138.343221,11.307533 138.139813,11.302289 98.174516,12.306319 "/>
  <edge id="1416039837" from="1343054367" to="1343054340" numLanes="1" width="4.0" shape="61.844702,-33.719859 64.074249,-8.163496 64.504306,-3.144089 "/>
  <edge id="1416058053" from="13013300166" to="13013300144" numLanes="1" width="4.0" shape="-78.495567,86.264897 -72.562011,91.568371 -70.445037,99.176842 -70.368412,99.400222 -67.147110,107.247550 -67.046643,107.456820 -62.930740,114.890682 -62.805237,115.088940 -57.847920,121.988325 -57.702543,122.167799 -51.976757,128.456341 -51.809711,128.619552 -45.388763,134.198729 -45.205153,134.340451 -38.172045,139.145140 -37.972053,139.265285 -35.203814,140.715657 -30.431333,143.219155 -30.218115,143.315545 -22.261076,146.365644 -22.043676,146.435035 -13.784201,148.560582 -13.560053,148.604791 -5.470620,149.724857 -5.247792,149.743094 2.918983,149.953361 3.138566,149.946947 11.280467,149.260163 11.500142,149.229286 19.504532,147.647287 19.717944,147.592744 27.503266,145.139020 27.713398,145.059562 35.177436,141.746860 35.372066,141.647414 42.423746,137.543698 42.610980,137.420184 49.148446,132.560352 49.320385,132.416918 55.272862,126.857523 55.425055,126.698843 60.093132,121.262822 71.089652,121.823491 "/>
  <edge id="1416058054" from="13013300182" to="Custom36" numLanes="1" width="4.0" shape="-76.183956,34.019346 -75.874104,34.535493 -75.728356,34.746361 -72.433919,38.914009 -72.257261,39.109503 -68.448180,42.803405 -68.235621,42.982618 -63.280571,46.602427 -63.157048,46.685788 -63.027661,46.759721 -57.583325,49.607043 -57.449096,49.671006 -57.310485,49.724820 -51.500826,51.735202 -51.268199,51.800265 -51.029425,51.836808 -47.199472,52.188007 -43.642927,53.143311 -40.307547,54.691574 -37.273857,56.771570 -34.668544,59.320809 -34.148001,60.063948 -32.129634,62.967867 -30.421454,67.017493 -29.414010,72.577859 "/>
  <edge id="29384963_1" from="Custom37" to="2712987712" numLanes="3" width="4.0" shape="361.183753,969.725533 360.407657,961.694273 360.371755,961.399263 355.581110,928.790995 353.479689,914.143525 353.446967,913.940303 341.965413,849.678404 298.831927,601.953833 297.277633,592.374048 264.657661,391.764787 257.112351,342.720083 256.081197,336.001462 256.056326,335.852020 251.547967,310.725754 236.418743,217.158198 227.817915,163.686577 215.382975,82.387267 215.353259,82.210660 205.349882,27.740744 203.766055,19.094342 "/>
  <edge id="119563230_1" from="Custom38" to="11135380574" numLanes="1" width="4.0" shape="-193.633626,-303.585102 -196.236062,-68.917090 -197.197514,17.764703 -197.189259,17.969755 -197.160035,18.172882 -197.110150,18.371945 -197.040128,18.564848 -196.950708,18.749560 -194.347329,23.490419 "/>
  <edge id="119563230_2" from="11135380574" to="11135380573" numLanes="1" width="4.0" shape="-192.875538,29.923716 -193.041067,33.081782 -193.042274,33.264805 -192.761455,40.428845 -192.743346,40.630131 -192.164270,44.731280 -191.492879,49.453306 -191.448170,49.676073 -189.197173,58.314806 -189.131359,58.520954 -189.043658,58.718785 -188.935096,58.905982 -186.624091,62.435952 -186.471041,62.640030 -183.724783,65.852663 -183.623703,65.962348 -183.514731,66.064195 -179.546268,69.505074 -178.096596,71.705011 -177.082951,74.226700 -176.594538,76.885607 -176.663821,79.757314 -177.339782,82.553356 -178.601203,85.143296 -180.347693,87.396862 -184.297240,90.479520 -184.480543,90.641573 -188.199407,94.358605 -188.365958,94.547489 -191.586072,98.699573 -191.728780,98.909947 -194.648975,103.865960 -194.770750,104.109028 -196.988844,109.408135 -197.076787,109.666443 -198.553266,115.219360 -198.589071,115.380541 -198.611458,115.544127 -198.620277,115.709002 -200.551510,274.735533 "/>
  <edge id="119753633_1" from="13013144861" to="13013300144" numLanes="1" width="4.0" shape="85.698612,39.106092 86.196813,40.347447 88.307664,49.965087 88.439579,51.133040 89.411068,59.801572 89.512313,69.707222 88.796194,78.047028 87.365292,86.298441 85.219672,94.397862 82.378290,102.280427 78.859671,109.881848 75.562849,115.646576 "/>
  <edge id="379868358_1" from="Custom39" to="3832152244" numLanes="3" width="4.0" shape="131.686122,-317.834852 124.562596,-303.669616 124.307834,-303.088298 124.115904,-302.483322 123.988954,-301.861456 123.928404,-301.229659 123.934932,-300.595001 124.008465,-299.964583 175.341260,0.823064 177.657701,14.393039 "/>
  <edge id="379868358_3" from="8357062348" to="Custom40" numLanes="3" width="4.0" shape="260.871073,536.123753 270.937339,597.151427 272.448875,606.302197 272.451150,606.315876 328.225430,939.184828 332.444487,964.275044 333.091385,972.908529 "/>
  <edge id="745194945_1" from="6975696116" to="6975696115" numLanes="1" width="4.0" shape="167.015040,-220.592158 192.756944,-225.804210 193.018307,-225.835318 "/>
  <edge id="745194945_3" from="6975696115" to="6975696114" numLanes="1" width="4.0" shape="200.904231,-226.628324 214.125872,-227.714636 "/>
  <edge id="903257903_1" from="8389332448" to="8389332441" numLanes="1" width="4.0" shape="192.550091,345.467961 182.834136,283.032643 182.787392,282.813730 182.716477,282.601412 180.099767,276.018365 180.018725,275.840370 179.920685,275.671141 179.806585,275.512297 179.677517,275.365356 179.534713,275.231725 175.650333,271.937871 175.486774,271.813052 175.311257,271.705698 175.125640,271.616943 174.931887,271.547728 174.732047,271.498785 169.440691,270.488138 169.267003,270.462805 169.091763,270.452799 168.916320,270.458196 163.801309,270.840726 163.599215,270.866242 149.286785,273.419541 "/>
  <edge id="903257903_2" from="8389332441" to="8389332442" numLanes="1" width="4.0" shape="141.410535,274.826543 72.955784,287.071714 "/>
  <edge id="1257747224_1" from="Custom41" to="8389332450" numLanes="1" width="4.0" shape="46.783640,283.014514 64.148540,279.976977 "/>
  <edge id="1257747224_2" from="8389332450" to="8357062323" numLanes="1" width="4.0" shape="72.029465,278.596578 216.123331,253.323943 "/>
  <edge id="903257908_1" from="8389332450" to="8389332442" numLanes="1" width="4.0" shape="66.280441,281.543499 66.869077,286.038231 "/>
  <edge id="745194945_4" from="8389332505" to="Custom42" numLanes="1" width="4.0" shape="228.431487,-224.007671 271.838671,-207.876629 272.005013,-207.822960 272.175405,-207.784020 272.348547,-207.760105 300.826112,-205.088403 300.911214,-205.082247 335.365866,-203.327735 "/>
  <edge id="119753633_3" from="13013144820" to="1343054367" numLanes="1" width="4.0" shape="-76.323748,12.147843 -76.322370,12.118727 -75.686696,-1.202027 -71.400815,-7.124491 -67.601525,-11.338521 -64.874980,-13.847077 -64.871826,-13.849986 -63.358236,-15.248571 -63.237297,-15.370347 -59.926709,-19.003123 -59.783621,-19.179249 -56.908893,-23.159467 -56.789925,-23.344912 -54.370634,-27.616853 -54.257872,-27.849991 -51.884719,-33.694508 -51.796454,-33.966065 -50.278097,-40.095790 -50.229237,-40.378804 -49.877335,-43.918429 -49.608609,-46.605868 -47.794322,-59.302208 -47.781716,-59.412014 -47.307414,-64.871000 -46.669423,-72.227618 -46.662885,-72.339077 -46.268322,-85.198053 -46.268009,-85.309525 -46.590427,-98.167885 -46.596455,-98.280783 -47.338430,-107.352737 -47.659550,-111.345938 -47.672248,-111.461611 -49.482003,-124.450826 -49.500592,-124.561448 -52.035587,-137.428035 -52.061032,-137.540103 -55.330786,-150.239587 -55.337589,-150.265301 -57.194385,-157.099237 -57.965318,-161.965337 -57.966152,-161.970556 -58.290644,-163.984298 -58.642826,-170.954442 -58.259548,-177.914846 -57.242334,-184.050650 -57.120367,-184.786925 -56.647785,-186.469290 -54.938502,-192.458809 -51.827894,-199.810348 -47.855850,-206.734443 -43.004339,-213.197904 -37.427416,-220.209261 -31.189300,-226.532047 -24.299860,-232.162121 -16.847790,-237.022379 -8.921374,-241.057699 -0.601474,-244.233593 8.016280,-246.495409 11.998587,-247.110963 16.704669,-247.826963 25.482572,-248.229841 34.253778,-247.723619 42.928676,-246.285510 51.399951,-243.945606 59.574593,-240.735463 67.376042,-236.673605 79.975878,-228.804375 84.208770,-225.464960 87.416603,-222.096258 90.174703,-218.301455 92.413154,-214.185648 94.173564,-209.556532 97.000881,-200.501888 99.264572,-191.284887 100.964197,-181.947747 102.098847,-172.524797 102.657208,-163.083721 102.629259,-153.632197 102.045487,-144.340273 100.472297,-134.646364 98.157260,-125.014775 95.122322,-115.566345 91.395976,-106.354603 88.205732,-99.851560 87.333407,-98.069414 82.711097,-90.080754 77.379594,-82.195833 73.469053,-76.415093 73.371615,-76.255447 69.880311,-69.883057 69.797238,-69.712749 66.925395,-63.040225 66.860300,-62.867417 64.617073,-55.961387 64.566566,-55.776029 62.982855,-48.625916 62.951429,-48.445089 62.788059,-47.157173 62.787373,-47.151707 62.045041,-41.167608 62.030410,-40.969628 61.987733,-39.200571 61.837948,-33.950720 "/>
  <edge id="119753633_2" from="13013300144" to="13013298555" numLanes="1" width="4.0" shape="71.215714,122.087537 68.973847,125.168749 62.849669,131.925934 62.747561,132.016815 "/>
  <edge id="1416039836_2" from="13013298544" to="Custom43" numLanes="1" width="4.0" shape="131.784720,252.741492 201.339009,240.429706 "/>
  <edge id="1416039836_1" from="11135380573" to="13013145029" numLanes="1" width="4.0" shape="-200.445087,275.403965 -198.788234,280.274185 -198.681940,280.527894 -196.374081,285.121572 -196.232886,285.359886 -193.306007,289.599986 -193.134243,289.815409 -189.651230,293.614319 -189.452479,293.803276 -185.475855,297.095537 -185.357596,297.186234 -185.232911,297.267874 -180.060767,300.385505 -179.921329,300.462164 -179.776238,300.527495 -174.177709,302.785023 -174.024306,302.839731 -173.866960,302.881775 -167.966187,304.203668 -167.810911,304.232069 -167.653878,304.248136 -161.614878,304.625994 -161.377299,304.626721 -161.141310,304.599270 72.392705,263.252537 "/>
  <edge id="1416039836_3" from="13013145029" to="13013298544" numLanes="1" width="4.0" shape="80.270098,261.858170 123.907076,254.135754 "/>
  <edge id="119753633_4" from="13013298555" to="13013145020" numLanes="1" width="4.0" shape="56.771454,137.334507 56.034394,137.990188 48.606201,143.285138 40.643316,147.755882 33.241296,150.926416 "/>
  <edge id="119753637_1" from="12769560375" to="1344423631" numLanes="1" width="4.0" shape="89.848221,34.487708 93.874615,29.524806 93.995053,29.359794 94.098030,29.183358 94.182471,28.997337 95.048263,26.797972 "/>
  <edge id="119753637_3" from="1344423631" to="13013144851" numLanes="1" width="4.0" shape="96.705881,18.370587 96.706032,18.359337 "/>
  <edge id="119753637_4" from="13013144851" to="1343054340" numLanes="1" width="4.0" shape="95.043729,10.009407 94.953771,9.696291 94.885213,9.497644 94.796190,9.307287 94.687685,9.127322 91.245184,4.042435 91.119333,3.875963 90.976820,3.723511 90.819198,3.586740 85.963869,-0.200938 85.792950,-0.320480 85.610512,-0.421570 85.418537,-0.503111 79.627738,-2.613571 79.431320,-2.673921 79.229747,-2.713799 79.025146,-2.732784 72.854908,-2.986734 72.645856,-2.984402 72.438189,-2.960259 72.234177,-2.914571 70.152272,-2.332540 "/>
  <edge id="119753637_5" from="1343054340" to="13013144861" numLanes="1" width="4.0" shape="62.407452,1.275627 60.078054,2.867056 59.939279,2.970966 59.810024,3.086504 59.691261,3.212802 59.583881,3.348910 55.607479,8.864994 55.511811,9.010693 55.429192,9.164169 55.360249,9.324256 55.305507,9.489737 53.455698,16.023724 53.415627,16.193050 53.390426,16.365217 53.380285,16.538923 53.385281,16.712853 53.874517,23.474615 53.894517,23.646870 53.929365,23.816745 53.978796,23.982963 54.042440,24.144274 56.806695,30.348190 56.883997,30.503242 56.974427,30.651023 57.077308,30.790423 57.191868,30.920395 61.911839,35.829328 62.037895,35.949492 62.173928,36.058233 62.318904,36.154729 62.471725,36.238246 68.584341,39.240913 68.793834,39.329416 69.012021,39.393563 69.236078,39.432525 76.029546,40.219219 76.202959,40.231693 76.376799,40.229060 76.549754,40.211339 76.720516,40.178663 82.911264,38.712529 "/>
  <edge id="119753633_5" from="13013145020" to="13013300166" numLanes="1" width="4.0" shape="25.536749,153.407453 23.493957,154.032536 14.514911,155.748723 5.409933,156.503482 -3.741623,156.273818 -12.797545,155.079223 -21.677999,152.907846 -30.548741,149.695990 -39.002121,145.515099 -46.940194,140.427264 -54.251615,134.495744 -60.864423,127.795852 -66.677880,120.401394 -71.641303,112.407624 -72.377246,110.861249 -73.999370,107.432881 -74.001681,107.428013 -75.671119,103.924099 -78.726945,95.046649 -80.602943,86.669992 "/>
  <edge id="119753633_6" from="13013300166" to="13013300182" numLanes="1" width="4.0" shape="-80.304607,78.880298 -80.023142,74.184518 -78.354227,46.524752 -77.610273,34.203207 "/>
  <edge id="119753633_7" from="13013300182" to="13013144820" numLanes="1" width="4.0" shape="-76.946530,23.225054 -76.758927,20.163722 "/>
  <edge id="29384963_2" from="2712987712" to="6975696116" numLanes="3" width="4.0" shape="202.468014,11.377765 200.266343,-2.981756 167.256790,-218.313500 "/>
  <edge id="29384963_3" from="6975696116" to="Custom44" numLanes="3" width="4.0" shape="166.069542,-226.193654 153.004375,-314.452715 "/>
  <edge id="379868358_2" from="3832152244" to="8357062323" numLanes="3" width="4.0" shape="178.957463,22.229406 180.577877,32.292211 215.170815,247.313876 "/>
  <edge id="903257908_2" from="8389332442" to="8389332448" numLanes="1" width="4.0" shape="67.907088,293.970742 75.494347,351.874848 75.510614,351.978005 76.566713,357.700105 76.619774,357.918202 76.696940,358.128980 76.797238,358.329784 79.991811,363.917295 80.089879,364.071934 80.201679,364.216955 80.326275,364.351143 80.462621,364.473373 80.609575,364.582620 80.765905,364.677969 86.491449,367.819899 86.674253,367.908448 86.865097,367.977999 87.062010,368.027834 87.262963,368.057440 94.084833,368.710706 94.257635,368.719733 94.430570,368.713791 94.602344,368.692922 155.952706,358.529712 156.002986,358.520722 187.637842,352.446325 "/>
  <edge id="903257908_3" from="8389332448" to="8389332491" numLanes="1" width="4.0" shape="195.191469,351.722851 214.041875,351.698966 214.203965,351.692181 214.364972,351.672281 229.529998,349.169789 "/>
  <edge id="379868358_4" from="8357062323" to="8389332491" numLanes="3" width="4.0" shape="216.340855,255.101424 228.627486,343.088035 "/>
  <edge id="379868358_5" from="8389332491" to="8357062348" numLanes="3" width="4.0" shape="229.940954,351.234385 238.081521,395.724800 259.576939,528.213128 "/>
</edges>
