<?xml version='1.0' encoding='UTF-8'?>
<nodes>
  <node id="11135380573" x="-198.551657" y="274.759819"/>
  <node id="11135380574" x="-190.668908" y="26.033886" shape="-190.841188,21.565070 -187.884675,22.534165 -186.198591,26.161440 -188.881021,30.133088 -192.875538,29.923717 -194.347329,23.490420 -190.841188,21.565070 -190.841188,21.565070"/>
  <node id="12769560375" x="88.29508" y="33.227647"/>
  <node id="13013144820" x="-78.510515" y="16.048879" shape="-80.319280,11.958846 -76.323747,12.147847 -76.512749,16.143380 -76.514260,16.171212 -76.758926,20.163723 -80.751437,19.919056 -82.855642,17.107119 -81.964183,13.207722 -80.319280,11.958846 -80.319280,11.958846"/>
  <node id="13013144849" x="145.055142" y="17.854336" shape="142.826913,13.976837 146.032957,15.843396 146.160496,16.187545 146.077205,19.843151 142.441078,21.482927 140.583831,17.940240 140.616206,17.310420 142.826913,13.976837 142.826913,13.976837"/>
  <node id="13013144851" x="94.226007" y="14.406146" shape="95.043729,10.009405 98.174516,12.306318 98.274975,16.305057 96.706033,18.359302 92.706392,18.305689 91.199247,11.113924 95.043729,10.009405 95.043729,10.009405"/>
  <node id="13013144861" x="86.064868" y="34.648979" shape="87.220196,31.541046 89.369965,34.914248 89.410805,37.616252 85.698612,39.106092 83.116867,38.663837 81.820413,34.972966 87.220196,31.541046 87.220196,31.541046"/>
  <node id="13013145020" x="27.379735" y="154.935047" shape="33.241296,150.926415 34.816234,154.603311 34.359466,157.004673 32.212534,160.379682 27.008706,157.140118 26.306269,156.622551 25.838296,153.315181 33.241296,150.926415 33.241296,150.926415"/>
  <node id="13013145029" x="75.982777" y="260.585818" shape="74.633178,256.322183 79.573051,257.919372 80.270098,261.858170 72.392706,263.252537 71.695359,259.313793 71.762110,259.107316 74.633178,256.322183 74.633178,256.322183"/>
  <node id="13013298544" x="127.49735" y="251.469308" shape="128.076667,247.034853 131.087520,248.802722 131.784721,252.741492 127.845874,253.438707 123.907076,254.135754 123.210029,250.196956 124.297376,248.345182 128.076667,247.034853 128.076667,247.034853"/>
  <node id="13013298555" x="61.089363" y="136.170178" shape="62.747558,132.016819 65.406967,135.004718 65.431292,137.241462 62.837493,140.286492 59.430080,140.323102 56.771454,137.334506 62.747558,132.016819 62.747558,132.016819"/>
  <node id="13013300144" x="75.186303" y="120.029766" shape="75.562849,115.646577 79.035123,117.632355 77.690179,119.984085 76.803529,121.206447 74.450167,124.440900 71.215714,122.087537 71.089652,121.823492 71.293332,117.828681 75.562849,115.646577 75.562849,115.646577"/>
  <node id="13013300166" x="-82.381836" y="80.10885" shape="-81.049014,78.617681 -80.325587,79.230307 -75.829923,83.282559 -78.495567,86.264897 -84.513132,87.513439 -84.766771,86.380898 -84.318420,78.990976 -81.049014,78.617681 -81.049014,78.617681"/>
  <node id="13013300182" x="-79.003951" y="24.100849" shape="-80.939040,22.980388 -76.946529,23.225055 -72.754464,31.960562 -76.183956,34.019345 -77.610272,34.203208 -81.603001,33.962134 -81.000206,23.978516 -80.939040,22.980388 -80.939040,22.980388"/>
  <node id="1343054340" x="66.838469" y="0.670578" shape="68.489704,-3.485553 70.152272,-2.332539 71.229244,1.519750 64.663898,4.578422 62.407452,1.275628 64.504305,-3.144088 68.489704,-3.485553 68.489704,-3.485553"/>
  <node id="1343054367" x="63.837134" y="-33.89368"/>
  <node id="1344423631" x="94.652448" y="22.343386" shape="92.706241,18.316939 96.705882,18.370552 98.612455,20.265323 98.690903,24.264554 95.048263,26.797971 91.326269,25.332789 92.706241,18.316939 92.706241,18.316939"/>
  <node id="2712987712" x="197.143535" y="16.240884" shape="202.468014,11.377765 203.766056,19.094341 191.962451,21.256497 191.241733,17.321962 191.212841,17.150207 190.606626,13.196411 202.468014,11.377765 202.468014,11.377765"/>
  <node id="3832152244" x="184.245224" y="17.326388" shape="189.486593,12.373808 190.159670,16.316772 190.168913,16.372496 190.804841,20.321622 178.957463,22.229406 177.657700,14.393040 189.486593,12.373808 189.486593,12.373808"/>
  <node id="4025764826" x="-29.762967" y="294.36432"/>
  <node id="6975696114" x="217.948668" y="-230.035462" shape="219.297022,-234.299491 222.394739,-230.517595 221.002017,-226.767885 214.125873,-227.714636 213.798330,-231.701203 215.346457,-233.672562 219.297022,-234.299491 219.297022,-234.299491"/>
  <node id="6975696115" x="196.753893" y="-228.294064" shape="197.946401,-232.604276 200.576688,-230.614890 200.904231,-226.628323 193.018312,-225.835318 192.545547,-229.807281 194.021228,-231.834197 197.946401,-232.604276 197.946401,-232.604276"/>
  <node id="6975696116" x="160.719966" y="-221.358156" shape="166.069542,-226.193654 167.256790,-218.313500 155.395351,-216.495186 154.789247,-220.448999 154.784645,-220.479538 154.198900,-224.436419 166.069542,-226.193654 166.069542,-226.193654"/>
  <node id="8357062323" x="221.729996" y="250.310061" shape="227.018468,245.407811 227.653823,249.357029 227.672338,249.480260 228.225539,253.441822 216.340854,255.101423 215.170814,247.313875 227.018468,245.407811 227.018468,245.407811"/>
  <node id="8357062348" x="266.140093" y="531.2006" shape="271.422050,526.291331 272.711088,534.170790 260.871073,536.123752 260.220086,532.177081 260.217537,532.161498 259.576938,528.213127 271.422050,526.291331 271.422050,526.291331"/>
  <node id="8389332441" x="145.700205" y="276.090953" shape="149.286785,273.419540 149.989283,277.357369 148.275525,279.747143 144.320445,280.344923 142.114875,278.764042 141.410535,274.826542 145.348956,274.122039 149.286785,273.419540 149.286785,273.419540"/>
  <node id="8389332442" x="69.370454" y="289.744803" shape="70.835210,285.518821 72.955784,287.071714 73.660124,291.009214 71.873186,293.451059 67.907089,293.970742 67.387306,290.003884 66.869077,286.038231 70.835210,285.518821 70.835210,285.518821"/>
  <node id="8389332448" x="191.188939" y="349.727922" shape="192.550091,345.467961 195.186402,347.722855 195.191470,351.722852 187.637843,352.446325 186.883559,348.518087 188.597662,346.083024 192.550091,345.467961 192.550091,345.467961"/>
  <node id="8389332450" x="67.744098" y="277.31766" shape="71.338452,274.656717 72.029465,278.596578 70.246574,281.024089 66.280441,281.543498 64.148541,279.976977 63.459310,276.036804 71.338452,274.656717 71.338452,274.656717"/>
  <node id="8389332491" x="235.123028" y="346.219796" shape="240.512170,341.428434 241.744985,349.074561 229.940954,351.234386 229.221012,347.299708 229.180686,347.049597 228.627485,343.088035 240.512170,341.428434 240.512170,341.428434"/>
  <node id="8389332505" x="225.378713" y="-227.275785" shape="222.325364,-230.543362 226.075404,-229.150517 229.824869,-227.757136 228.431487,-224.007671 226.494247,-222.945013 222.583416,-223.784895 220.932642,-226.793652 222.325364,-230.543362 222.325364,-230.543362"/>
  <node id="Custom31" x="-8.141373999999992" y="431.223588"/>
  <node id="Custom32" x="51.824883" y="422.877418"/>
  <node id="Custom33" x="29.966590999999994" y="300.35920999999996"/>
  <node id="Custom34" x="153.54155500000002" y="327.971546"/>
  <node id="Custom35" x="207.66109699999998" y="-144.775327"/>
  <node id="Custom36" x="-27.446051000000004" y="72.22129799999999"/>
  <node id="Custom37" x="355.211573" y="970.302651"/>
  <node id="Custom38" x="-191.633749" y="-303.562924"/>
  <node id="Custom39" x="137.046479" y="-315.139193"/>
  <node id="Custom40" x="339.07461300000006" y="972.4602120000001"/>
  <node id="Custom41" x="46.439025" y="281.044428"/>
  <node id="Custom42" x="335.467579" y="-205.32514700000002"/>
  <node id="Custom43" x="200.990409" y="238.460321"/>
  <node id="Custom44" x="147.069054" y="-313.574097"/>
</nodes>
