<?xml version="1.0" encoding="UTF-8"?>

<!-- generated on 2025-09-01 17:38:28.906708 by randomTrips.py v1_24_0+0000-b72eb3fabc8
<configuration>
    <net-file value="sumo.net.xml"/>
    <route-file value="sumo.rou.xml"/>
    <length value="True"/>
    <end value="50.0"/>
</configuration>
-->

<routes xmlns:xsi="http://www.w3.org/2001/XMLSchema-instance" xsi:noNamespaceSchemaLocation="http://sumo.dlr.de/xsd/routes_file.xsd">
    <trip id="0" depart="0.00" from="379868358_4" to="379868358_5"/>
    <trip id="1" depart="1.00" from="1416058053" to="119563230_2"/>
    <trip id="2" depart="2.00" from="119563230_1" to="119753633_5"/>
    <trip id="3" depart="3.00" from="379868358_1" to="379868358_2"/>
    <trip id="4" depart="4.00" from="1375194857" to="119753633_3"/>
    <trip id="5" depart="5.00" from="119563230_2" to="119753633_3"/>
    <trip id="6" depart="6.00" from="399909357" to="399909357"/>
    <trip id="7" depart="7.00" from="119753633_5" to="1200989832"/>
    <trip id="8" depart="8.00" from="119563230_2" to="119753637_5"/>
    <trip id="9" depart="9.00" from="119753633_1" to="1200989832"/>
    <trip id="10" depart="10.00" from="1416039836_1" to="119753633_5"/>
    <trip id="11" depart="11.00" from="379868358_1" to="379868358_3"/>
    <trip id="12" depart="12.00" from="119753633_3" to="1416039836_1"/>
    <trip id="13" depart="13.00" from="903257908_2" to="379868358_3"/>
    <trip id="14" depart="14.00" from="399909357" to="399909357"/>
    <trip id="15" depart="15.00" from="119753633_5" to="119563230_2"/>
    <trip id="16" depart="16.00" from="1200989831" to="1200989831"/>
    <trip id="17" depart="17.00" from="1416039836_1" to="119753633_6"/>
    <trip id="18" depart="18.00" from="119563230_2" to="119563230_2"/>
    <trip id="19" depart="19.00" from="119563230_2" to="1416039836_1"/>
    <trip id="20" depart="20.00" from="379868358_1" to="379868358_2"/>
    <trip id="21" depart="21.00" from="119753633_3" to="1416039836_3"/>
    <trip id="22" depart="22.00" from="745194944" to="745194944"/>
    <trip id="23" depart="23.00" from="1257747224_1" to="379868358_3"/>
    <trip id="24" depart="24.00" from="119563230_1" to="1375194857"/>
    <trip id="25" depart="25.00" from="399909357" to="399909357"/>
    <trip id="26" depart="26.00" from="1416058053" to="119753633_5"/>
    <trip id="27" depart="27.00" from="119753633_5" to="119753633_6"/>
    <trip id="28" depart="28.00" from="119753633_5" to="119753633_3"/>
    <trip id="29" depart="29.00" from="119753633_1" to="1416039836_3"/>
    <trip id="30" depart="30.00" from="379868358_2" to="379868358_5"/>
    <trip id="31" depart="31.00" from="1416039836_1" to="1375194857"/>
    <trip id="32" depart="32.00" from="119753633_3" to="1416058054"/>
    <trip id="33" depart="33.00" from="1416058053" to="1200989832"/>
    <trip id="34" depart="34.00" from="903257908_3" to="399909357"/>
    <trip id="35" depart="35.00" from="903257908_2" to="903257903_1"/>
    <trip id="36" depart="36.00" from="1416039836_1" to="119753633_1"/>
    <trip id="37" depart="37.00" from="903257903_2" to="903257908_3"/>
    <trip id="38" depart="38.00" from="903257908_2" to="379868358_3"/>
    <trip id="39" depart="39.00" from="119563230_2" to="119753633_4"/>
    <trip id="40" depart="40.00" from="119753633_6" to="119753633_3"/>
    <trip id="41" depart="41.00" from="119753633_6" to="1416039836_1"/>
    <trip id="42" depart="42.00" from="1257747224_2" to="399909357"/>
    <trip id="43" depart="43.00" from="903257908_3" to="903257908_3"/>
    <trip id="44" depart="44.00" from="119563230_2" to="119753633_5"/>
    <trip id="45" depart="45.00" from="1416039836_1" to="119753633_3"/>
    <trip id="46" depart="46.00" from="399909357" to="399909357"/>
    <trip id="47" depart="47.00" from="119753633_3" to="119753633_3"/>
    <trip id="48" depart="48.00" from="1416058053" to="1200989832"/>
    <trip id="49" depart="49.00" from="1416058053" to="119563230_2"/>
</routes>
